[General]
network = SimpleNet

sim-time-limit = 20s
